Version 4
SHEET 1 960 1140
WIRE 656 -256 576 -256
WIRE 688 -256 656 -256
WIRE 576 -224 576 -256
WIRE 656 -128 656 -256
WIRE 464 -112 432 -112
WIRE 576 -112 576 -144
WIRE 576 -112 544 -112
WIRE 608 -112 576 -112
WIRE 432 -80 432 -112
WIRE 256 -32 224 -32
WIRE 368 -32 336 -32
WIRE 224 0 224 -32
WIRE 432 48 432 16
WIRE -16 64 -48 64
WIRE 656 80 656 -32
WIRE -48 112 -48 64
WIRE 224 128 224 80
WIRE 656 192 656 160
WIRE -48 224 -48 192
WIRE -96 544 -144 544
WIRE 832 576 768 576
WIRE -144 592 -144 544
WIRE 272 640 192 640
WIRE 608 640 560 640
WIRE 768 640 768 576
WIRE -144 704 -144 672
WIRE 272 720 112 720
WIRE 576 720 560 720
WIRE 720 720 576 720
WIRE 112 752 112 720
WIRE 608 784 608 640
WIRE 272 800 208 800
WIRE 576 800 576 720
WIRE 576 800 560 800
WIRE 112 864 112 832
WIRE 208 880 208 800
WIRE 272 880 208 880
WIRE 608 880 608 848
WIRE 608 880 560 880
WIRE 768 880 768 736
WIRE 768 880 608 880
WIRE 768 912 768 880
WIRE 208 976 208 880
WIRE 416 976 416 928
WIRE 416 976 208 976
WIRE 208 1024 208 976
WIRE 768 1024 768 992
WIRE 768 1120 768 1088
FLAG -48 224 0
FLAG -16 64 48V
FLAG 432 48 0
FLAG 224 128 0
FLAG 688 -256 48V
FLAG 656 192 0
FLAG -144 704 0
FLAG -96 544 5V
FLAG 192 640 5V
FLAG 208 1024 0
FLAG 112 864 0
FLAG 832 576 48V
FLAG 768 1120 0
SYMBOL voltage -48 96 R0
WINDOW 123 0 0 Left 0
WINDOW 39 0 0 Left 0
SYMATTR InstName V1
SYMATTR Value 48
SYMBOL voltage 224 -16 R0
WINDOW 123 0 0 Left 0
WINDOW 39 0 0 Left 0
SYMATTR InstName V2
SYMATTR Value PULSE(0 3.3 10 10u 10u 100)
SYMBOL res 352 -48 R90
WINDOW 0 0 56 VBottom 2
WINDOW 3 32 56 VTop 2
SYMATTR InstName R1
SYMATTR Value 1k
SYMBOL npn 368 -80 R0
SYMATTR InstName Q1
SYMBOL res 560 -128 R90
WINDOW 0 0 56 VBottom 2
WINDOW 3 32 56 VTop 2
SYMATTR InstName R2
SYMATTR Value 75k
SYMBOL res 592 -128 R180
WINDOW 0 36 76 Left 2
WINDOW 3 36 40 Left 2
SYMATTR InstName R3
SYMATTR Value 10k
SYMBOL pmos 608 -32 M180
SYMATTR InstName M1
SYMATTR Value FDC5614P
SYMBOL res 672 64 M0
SYMATTR InstName R_Float
SYMATTR Value 10k
SYMBOL PowerProducts\\LTC7001 416 768 R0
SYMATTR InstName U1
SYMBOL voltage -144 576 R0
WINDOW 123 0 0 Left 0
WINDOW 39 0 0 Left 0
SYMATTR InstName V3
SYMATTR Value 5
SYMBOL nmos 720 640 R0
SYMATTR InstName M2
SYMATTR Value BSC028N06LS3
SYMBOL cap 592 784 R0
SYMATTR InstName C1
SYMATTR Value 0.1µ
SYMBOL voltage 112 736 M0
WINDOW 123 0 0 Left 0
WINDOW 39 0 0 Left 0
SYMATTR InstName V4
SYMATTR Value PULSE(0 3.3 1 10u 10u 120)
SYMBOL res 752 896 R0
SYMATTR InstName R4
SYMATTR Value 4
SYMBOL cap 752 1024 R0
SYMATTR InstName C2
SYMATTR Value 10
TEXT -256 1048 Left 2 !.tran 0 100 0 startup
